Circuit: * C:\Users\Tomislav\Dropbox\TIvanis_FER\Workspace\LTSpice\DiffProbe\DiffprobeOPA659_offsetTrim.asc

WARNING: Less than two connections to node N007.  This node is used by V1.
WARNING: Less than two connections to node N018.  This node is used by V6.
WARNING: Less than two connections to node N015.  This node is used by R16.
WARNING: Less than two connections to node NC_01.  This node is used by R15.
Direct Newton iteration failed to find .op point.  (Use ".option noopiter" to skip.)
Starting Gmin stepping
Gmin = 10
Gmin = 1.07374
Gmin = 0.115292
Gmin = 0.0123794
Gmin = 0.00132923
Gmin = 0.000142725
Gmin = 1.5325e-005
Gmin = 1.6455e-006
Gmin = 1.76685e-007
Gmin = 1.89714e-008
Gmin = 2.03704e-009
Gmin = 2.18725e-010
Gmin = 2.34854e-011
Gmin = 2.52173e-012
Gmin = 2.70769e-013
Gmin = 0
Gmin stepping succeeded in finding the operating point.


Date: Thu Jan 04 11:12:34 2024
Total elapsed time: 3.598 seconds.

tnom = 27
temp = 27
method = modified trap
totiter = 76049
traniter = 75455
tranpoints = 31026
accept = 24863
rejected = 6163
matrix size = 233
fillins = 301
solver = Alternate
Thread vector: 22.4/15.0[4] 14.3/6.2[4] 3.4/2.4[4] 2.8/2.3[2]  2592/500
Matrix Compiler1: 37.71 KB object code size  9.6/6.9/[5.2]
Matrix Compiler2: 28.82 KB object code size  4.9/6.1/[2.7]

